LAMMPS (2 Aug 2023 - Update 3)

units lj
atom_style atomic
lattice fcc 0.8442
Lattice spacing in x,y,z = 1.6795962 1.6795962 1.6795962
region box block 0 10 0 10 0 10
create_box 1 box
Created orthogonal box = (0 0 0) to (16.795962 16.795962 16.795962)
create_atoms 1 box
Created 4000 atoms
mass 1 1.0
velocity all create 1.44 87287
pair_style lj/cut 2.5
pair_coeff 1 1 1.0 1.0 2.5
fix 1 all nvt temp 1.0 1.0 0.1
thermo 100
thermo_style custom step temp press
thermo_modify flush yes
run 10000
Generated 0 of 0 mixed pair_coeff terms from geometric mixing rule
Step          Temp          Press
0   1.44          -5.0199732
Averages over the last 51 of 101 rows, steps 5000 to 10000:
Temp Press
1.00049 2.58111
Loop time of 18.0286 on 1 procs for 10000 steps with 4000 atoms
